FoamFile
{
    version     2.0;
    format      ascii;
    class       dictionary;
    location    "system";
    object      controlDict;
}
application     paperTest;
startFrom       startTime;
startTime       0;
stopAt          endTime;
endTime         1e-3;
deltaT          1e-9;
writeControl    timeStep;
writeInterval   1000;
purgeWrite      0;
writeFormat     ascii;
writePrecision  6;
writeCompression off;
timeFormat      general;
timePrecision   6;
runTimeModifiable true;