/*--------------------------------*- C++ -*----------------------------------*\
  =========                 |
  \\      /  F ield         | OpenFOAM: The Open Source CFD Toolbox
   \\    /   O peration     | Website:  https://openfoam.org
    \\  /    A nd           | Version:  12
     \\/     M anipulation  |
\*---------------------------------------------------------------------------*/
FoamFile
{
    format      ascii;
    class       dictionary;
    object      fluidMulticomponentThermo;
}
// * * * * * * * * * * * * * * * * * * * * * * * * * * * * * * * * * * * * * //

type
(
    hePsiThermo
    heRhoThermo
);

typeRenamed
(
    hePsiThermo psiMulticomponentThermo
    heRhoThermo rhoFluidMulticomponentThermo
);

energy
(
    sensibleEnthalpy
    absoluteEnthalpy
    sensibleInternalEnergy
    absoluteInternalEnergy
);

mixture
(
    pureMixture
    multicomponentMixture
    valueMulticomponentMixture
    coefficientWilkeMulticomponentMixture
    highEnthalpyMixture
    userDefinedMixture
);

mixtureRenamed
(
    pureMixture singleComponentMixture
    multicomponentMixture coefficientMulticomponentMixture
);

transport
(
    const
    icoTabulated
    logPolynomial
    polynomial
    sutherland
    tabulated
    Andrade
    guptaYos
);

thermo
(
    eConst
    eIcoTabulated
    ePolynomial
    ePower
    eTabulated
    hConst
    hIcoTabulated
    hPolynomial
    hPower
    hTabulated
    janaf
    RRHO
    mutation
);

equationOfState
(
    adiabaticPerfectFluid
    Boussinesq
    icoPolynomial
    icoTabulated
    incompressiblePerfectGas
    linear
    PengRobinsonGas
    perfectFluid
    perfectGas
    rhoConst
    rhoTabulated
    rPolynomial
);


specie
(
    specie
);

codeOptions
#{
c++WARN += -Wno-old-style-cast \
    -Wno-int-in-bool-context       \
    -Wno-ignored-qualifiers \
    -Wno-sign-compare \
    -Wno-misleading-indentation \
    -Wno-unused-variable \
    -Wno-unused-function \
    -Wno-deprecated-copy

EXE_INC = \
    -I$(POLIMI_SRC)/thermophysicalModels/specie/lnInclude \
    -I$(MPP_DIRECTORY)/install/include/mutation++ \
    -I$(MPP_EIGEN)/install/include/eigen3 \
    -I$(MPP_DIRECTORY)/install/include/mutation++ \
    -I$(MPP_DIRECTORY)/install/include/eigen3 \
    -I$(MPP_DATA_DIRECTORY)/data/mechanisms \
    -I$(MPP_DATA_DIRECTORY)/data/mixtures \
    -I$(MPP_DATA_DIRECTORY)/data/thermo \
    -I$(MPP_DATA_DIRECTORY)/data/transfer \
    -I$(MPP_DATA_DIRECTORY)/data/transport \
    -I$(LIB_SRC)/physicalProperties/lnInclude              \
    -I$(LIB_SRC)/thermophysicalModels/specie/lnInclude \
    -I$(LIB_SRC)/thermophysicalModels/basic/lnInclude \
    -I$(LIB_SRC)/thermophysicalModels/multicomponentThermo/lnInclude \
    -I$(LIB_SRC)/finiteVolume/lnInclude

   LIB_LIBS = 

#};


// ************************************************************************* //


